2031
  -OEChem-06091914203D

 48 49  0     0  0  0  0  0  0999 V2000
    1.0242    0.2549   -0.3933 O   0  0  0  0  0  0  0  0  0  0  0  0
   -0.1614    1.8826    0.7222 O   0  0  0  0  0  0  0  0  0  0  0  0
    4.6815    0.6075   -0.1014 N   0  0  0  0  0  0  0  0  0  0  0  0
    3.4024    0.0271   -0.5088 C   0  0  0  0  0  0  0  0  0  0  0  0
   -1.3454    0.1755   -0.5661 C   0  0  0  0  0  0  0  0  0  0  0  0
    4.7813    0.6521    1.3569 C   0  0  0  0  0  0  0  0  0  0  0  0
    5.7927   -0.1569   -0.6667 C   0  0  0  0  0  0  0  0  0  0  0  0
    2.2433    0.8434    0.0404 C   0  0  0  0  0  0  0  0  0  0  0  0
   -2.6483    0.9165   -0.2938 C   0  0  0  0  0  0  0  0  0  0  0  0
   -1.4415   -1.2997   -0.2001 C   0  0  0  0  0  0  0  0  0  0  0  0
   -0.1260    0.8789    0.0217 C   0  0  0  0  0  0  0  0  0  0  0  0
    6.0784    1.3084    1.7986 C   0  0  0  0  0  0  0  0  0  0  0  0
    5.7051   -0.2137   -2.1824 C   0  0  0  0  0  0  0  0  0  0  0  0
   -3.3549    0.6206    0.8531 C   0  0  0  0  0  0  0  0  0  0  0  0
   -2.0487   -2.1671   -1.0843 C   0  0  0  0  0  0  0  0  0  0  0  0
   -3.0798    1.8602   -1.2024 C   0  0  0  0  0  0  0  0  0  0  0  0
   -0.9181   -1.7227    1.0042 C   0  0  0  0  0  0  0  0  0  0  0  0
   -4.5478    1.2992    1.1028 C   0  0  0  0  0  0  0  0  0  0  0  0
   -2.1366   -3.5183   -0.7493 C   0  0  0  0  0  0  0  0  0  0  0  0
   -4.2727    2.5389   -0.9526 C   0  0  0  0  0  0  0  0  0  0  0  0
   -1.0059   -3.0739    1.3391 C   0  0  0  0  0  0  0  0  0  0  0  0
   -5.0066    2.2583    0.1999 C   0  0  0  0  0  0  0  0  0  0  0  0
   -1.6152   -3.9717    0.4623 C   0  0  0  0  0  0  0  0  0  0  0  0
    3.2803    0.0286   -1.5975 H   0  0  0  0  0  0  0  0  0  0  0  0
    3.3060   -1.0191   -0.1882 H   0  0  0  0  0  0  0  0  0  0  0  0
   -1.1751    0.2153   -1.6541 H   0  0  0  0  0  0  0  0  0  0  0  0
    4.0020    1.2840    1.7904 H   0  0  0  0  0  0  0  0  0  0  0  0
    4.6938   -0.3441    1.8080 H   0  0  0  0  0  0  0  0  0  0  0  0
    6.7479    0.3296   -0.4438 H   0  0  0  0  0  0  0  0  0  0  0  0
    5.8375   -1.1762   -0.2625 H   0  0  0  0  0  0  0  0  0  0  0  0
    2.2973    1.8789   -0.3171 H   0  0  0  0  0  0  0  0  0  0  0  0
    2.2107    0.8346    1.1327 H   0  0  0  0  0  0  0  0  0  0  0  0
    6.9456    0.6550    1.6621 H   0  0  0  0  0  0  0  0  0  0  0  0
    6.2567    2.2521    1.2716 H   0  0  0  0  0  0  0  0  0  0  0  0
    6.0282    1.5379    2.8691 H   0  0  0  0  0  0  0  0  0  0  0  0
    4.9400   -0.9134   -2.5327 H   0  0  0  0  0  0  0  0  0  0  0  0
    5.5149    0.7735   -2.6176 H   0  0  0  0  0  0  0  0  0  0  0  0
    6.6585   -0.5694   -2.5900 H   0  0  0  0  0  0  0  0  0  0  0  0
   -3.0196   -0.0998    1.5900 H   0  0  0  0  0  0  0  0  0  0  0  0
   -2.4580   -1.8224   -2.0292 H   0  0  0  0  0  0  0  0  0  0  0  0
   -2.5140    2.0876   -2.1008 H   0  0  0  0  0  0  0  0  0  0  0  0
   -0.4534   -1.0440    1.7122 H   0  0  0  0  0  0  0  0  0  0  0  0
   -5.1169    1.0851    2.0028 H   0  0  0  0  0  0  0  0  0  0  0  0
   -2.6114   -4.2173   -1.4316 H   0  0  0  0  0  0  0  0  0  0  0  0
   -4.6295    3.2866   -1.6550 H   0  0  0  0  0  0  0  0  0  0  0  0
   -0.6035   -3.4267    2.2842 H   0  0  0  0  0  0  0  0  0  0  0  0
   -5.9346    2.7877    0.3951 H   0  0  0  0  0  0  0  0  0  0  0  0
   -1.6845   -5.0236    0.7237 H   0  0  0  0  0  0  0  0  0  0  0  0
  1  8  1  0  0  0  0
  1 11  1  0  0  0  0
  2 11  2  0  0  0  0
  3  4  1  0  0  0  0
  3  6  1  0  0  0  0
  3  7  1  0  0  0  0
  4  8  1  0  0  0  0
  4 24  1  0  0  0  0
  4 25  1  0  0  0  0
  5  9  1  0  0  0  0
  5 10  1  0  0  0  0
  5 11  1  0  0  0  0
  5 26  1  0  0  0  0
  6 12  1  0  0  0  0
  6 27  1  0  0  0  0
  6 28  1  0  0  0  0
  7 13  1  0  0  0  0
  7 29  1  0  0  0  0
  7 30  1  0  0  0  0
  8 31  1  0  0  0  0
  8 32  1  0  0  0  0
  9 14  2  0  0  0  0
  9 16  1  0  0  0  0
 10 15  2  0  0  0  0
 10 17  1  0  0  0  0
 12 33  1  0  0  0  0
 12 34  1  0  0  0  0
 12 35  1  0  0  0  0
 13 36  1  0  0  0  0
 13 37  1  0  0  0  0
 13 38  1  0  0  0  0
 14 18  1  0  0  0  0
 14 39  1  0  0  0  0
 15 19  1  0  0  0  0
 15 40  1  0  0  0  0
 16 20  2  0  0  0  0
 16 41  1  0  0  0  0
 17 21  2  0  0  0  0
 17 42  1  0  0  0  0
 18 22  2  0  0  0  0
 18 43  1  0  0  0  0
 19 23  2  0  0  0  0
 19 44  1  0  0  0  0
 20 22  1  0  0  0  0
 20 45  1  0  0  0  0
 21 23  1  0  0  0  0
 21 46  1  0  0  0  0
 22 47  1  0  0  0  0
 23 48  1  0  0  0  0
M  END
> <PUBCHEM_COMPOUND_CID>
2031

> <PUBCHEM_CONFORMER_RMSD>
1

> <PUBCHEM_CONFORMER_DIVERSEORDER>
1
12
56
62
6
15
60
11
9
64
49
35
34
4
37
29
8
14
51
33
57
47
32
28
55
19
65
44
3
45
67
27
54
41
53
5
7
42
10
23
30
25
63
36
22
46
40
43
52
66
58
20
39
18
24
50
26
21
38
48
61
2
17
31
13
16
59

> <PUBCHEM_MMFF94_PARTIAL_CHARGES>
31
1 -0.43
10 -0.14
11 0.66
14 -0.15
15 -0.15
16 -0.15
17 -0.15
18 -0.15
19 -0.15
2 -0.57
20 -0.15
21 -0.15
22 -0.15
23 -0.15
3 -0.81
39 0.15
4 0.27
40 0.15
41 0.15
42 0.15
43 0.15
44 0.15
45 0.15
46 0.15
47 0.15
48 0.15
5 0.35
6 0.27
7 0.27
8 0.28
9 -0.14

> <PUBCHEM_EFFECTIVE_ROTOR_COUNT>
9

> <PUBCHEM_PHARMACOPHORE_FEATURES>
4
1 2 acceptor
1 3 cation
6 10 15 17 19 21 23 rings
6 9 14 16 18 20 22 rings

> <PUBCHEM_HEAVY_ATOM_COUNT>
23

> <PUBCHEM_ATOM_DEF_STEREO_COUNT>
0

> <PUBCHEM_ATOM_UDEF_STEREO_COUNT>
0

> <PUBCHEM_BOND_DEF_STEREO_COUNT>
0

> <PUBCHEM_BOND_UDEF_STEREO_COUNT>
0

> <PUBCHEM_ISOTOPIC_ATOM_COUNT>
0

> <PUBCHEM_COMPONENT_COUNT>
1

> <PUBCHEM_CACTVS_TAUTO_COUNT>
1

> <PUBCHEM_CONFORMER_ID>
000007EF00000001

> <PUBCHEM_MMFF94_ENERGY>
56.0947

> <PUBCHEM_FEATURE_SELFOVERLAP>
20.297

> <PUBCHEM_SHAPE_FINGERPRINT>
107951 10 18261405420339673606
11405975 8 18339358669277828472
11823591 26 18337097965917765101
12166972 35 13182723862442557072
12616971 3 17095516310750432144
12643181 29 18341902849370166302
12788726 201 18118407486422306587
13004483 165 17835520792864171751
13533116 47 18128255584987343942
14251757 5 18335997427639688476
14790565 3 18196089936945052665
14866123 147 18337392737971312891
15042514 8 18191596452735687067
15131766 46 15287070452818708694
15927050 60 18411421666079276687
20197701 30 18336827477282449971
20554085 129 18196629849295207353
20681677 155 18408605864207731992
21033648 29 18338510842169738500
21424621 283 18058735697750968721
22224240 67 18413112737075286777
23558518 356 17898853714627014104
23559900 14 18273500070531838140
3411729 13 17899700059971990785
3729539 64 18052550867566868222
3759504 43 18260552208132443183
4015057 19 17346588699388233120
404807 14 14687829743606709452
4073 2 18342174501793009178
44062 13 18411145766159338406
5104073 3 18268137825258608512
5385378 56 18120943806787477873
53917941 68 18339062848735393525
559249 180 18409729543585171838
58260988 521 18117025259115162195
5924683 9 18267574891920605178
59755656 520 18343024355002737997
6669772 16 18269561533127802487
70251023 43 17555719255565614175
7226269 152 18271801302985874912
81228 2 17977092785117465337
9862522 239 18041266674230313253

> <PUBCHEM_SHAPE_MULTIPOLES>
456.61
12.72
3.82
1.53
21.49
4.57
0.06
-8.83
0.07
-5.88
-0.27
1.64
-0.01
1.14

> <PUBCHEM_SHAPE_SELFOVERLAP>
949.438

> <PUBCHEM_SHAPE_VOLUME>
260.1

> <PUBCHEM_COORDINATE_TYPE>
2
5
10

$$$$
