90932248
  -OEChem-06121911292D

 42 45  0     1  0  0  0  0  0999 V2000
    4.3641   -0.2637    0.0000 C   0  0  3  0  0  0  0  0  0  0  0  0
    3.5792   -0.8737    0.0000 C   0  0  3  0  0  0  0  0  0  0  0  0
    4.5002   -1.2488    0.0000 C   0  0  3  0  0  0  0  0  0  0  0  0
    4.0221    0.6760    0.0000 C   0  0  3  0  0  0  0  0  0  0  0  0
    5.7368    0.3283    0.0000 C   0  0  3  0  0  0  0  0  0  0  0  0
    5.9957    1.2943    0.0000 C   0  0  3  0  0  0  0  0  0  0  0  0
    2.7556   -0.3171    0.0000 C   0  0  0  0  0  0  0  0  0  0  0  0
    3.0287    0.6387    0.0000 C   0  0  0  0  0  0  0  0  0  0  0  0
    2.7896   -1.4873    0.0000 C   0  0  0  0  0  0  0  0  0  0  0  0
    5.2590    2.2769    0.0000 C   0  0  0  0  0  0  0  0  0  0  0  0
    7.1358   -0.1805    0.0000 C   0  0  0  0  0  0  0  0  0  0  0  0
    7.3946    0.7854    0.0000 C   0  0  0  0  0  0  0  0  0  0  0  0
    5.1139   -2.0384    0.0000 C   0  0  0  0  0  0  0  0  0  0  0  0
    2.0000   -2.1009    0.0000 C   0  0  0  0  0  0  0  0  0  0  0  0
    3.4032   -2.2769    0.0000 C   0  0  0  0  0  0  0  0  0  0  0  0
    2.1760   -0.6977    0.0000 C   0  0  0  0  0  0  0  0  0  0  0  0
    4.1258   -1.7430    0.0000 H   0  0  0  0  0  0  0  0  0  0  0  0
    3.9169    1.2870    0.0000 H   0  0  0  0  0  0  0  0  0  0  0  0
    6.1984    0.7424    0.0000 H   0  0  0  0  0  0  0  0  0  0  0  0
    6.3650    1.7922    0.0000 H   0  0  0  0  0  0  0  0  0  0  0  0
    2.1806   -0.0850    0.0000 H   0  0  0  0  0  0  0  0  0  0  0  0
    2.4643   -0.8644    0.0000 H   0  0  0  0  0  0  0  0  0  0  0  0
    3.0707    1.2573    0.0000 H   0  0  0  0  0  0  0  0  0  0  0  0
    2.4180    0.7455    0.0000 H   0  0  0  0  0  0  0  0  0  0  0  0
    5.5769    2.8092    0.0000 H   0  0  0  0  0  0  0  0  0  0  0  0
    4.6459    2.3688    0.0000 H   0  0  0  0  0  0  0  0  0  0  0  0
    6.9409   -0.7690    0.0000 H   0  0  0  0  0  0  0  0  0  0  0  0
    7.7298   -0.3583    0.0000 H   0  0  0  0  0  0  0  0  0  0  0  0
    7.9886    0.6077    0.0000 H   0  0  0  0  0  0  0  0  0  0  0  0
    7.5895    1.3740    0.0000 H   0  0  0  0  0  0  0  0  0  0  0  0
    4.6243   -2.4189    0.0000 H   0  0  0  0  0  0  0  0  0  0  0  0
    5.4943   -2.5280    0.0000 H   0  0  0  0  0  0  0  0  0  0  0  0
    5.6034   -1.6580    0.0000 H   0  0  0  0  0  0  0  0  0  0  0  0
    1.6196   -1.6113    0.0000 H   0  0  0  0  0  0  0  0  0  0  0  0
    1.5104   -2.4813    0.0000 H   0  0  0  0  0  0  0  0  0  0  0  0
    2.3804   -2.5904    0.0000 H   0  0  0  0  0  0  0  0  0  0  0  0
    2.9137   -2.6573    0.0000 H   0  0  0  0  0  0  0  0  0  0  0  0
    3.7837   -2.7664    0.0000 H   0  0  0  0  0  0  0  0  0  0  0  0
    3.8928   -1.8964    0.0000 H   0  0  0  0  0  0  0  0  0  0  0  0
    2.6656   -0.3172    0.0000 H   0  0  0  0  0  0  0  0  0  0  0  0
    1.7956   -0.2081    0.0000 H   0  0  0  0  0  0  0  0  0  0  0  0
    1.6864   -1.0781    0.0000 H   0  0  0  0  0  0  0  0  0  0  0  0
  1  2  1  0  0  0  0
  1  3  1  0  0  0  0
  1  4  1  0  0  0  0
  1  5  1  0  0  0  0
  2  3  1  0  0  0  0
  2  7  1  0  0  0  0
  2  9  1  0  0  0  0
  3 13  1  0  0  0  0
  3 17  1  0  0  0  0
  4  6  1  0  0  0  0
  4  8  1  0  0  0  0
  4 18  1  0  0  0  0
  5 10  1  0  0  0  0
  5 11  1  0  0  0  0
  5 19  1  0  0  0  0
  6 10  1  0  0  0  0
  6 12  1  0  0  0  0
  6 20  1  0  0  0  0
  7  8  1  0  0  0  0
  7 21  1  0  0  0  0
  7 22  1  0  0  0  0
  8 23  1  0  0  0  0
  8 24  1  0  0  0  0
  9 14  1  0  0  0  0
  9 15  1  0  0  0  0
  9 16  1  0  0  0  0
 10 25  1  0  0  0  0
 10 26  1  0  0  0  0
 11 12  1  0  0  0  0
 11 27  1  0  0  0  0
 11 28  1  0  0  0  0
 12 29  1  0  0  0  0
 12 30  1  0  0  0  0
 13 31  1  0  0  0  0
 13 32  1  0  0  0  0
 13 33  1  0  0  0  0
 14 34  1  0  0  0  0
 14 35  1  0  0  0  0
 14 36  1  0  0  0  0
 15 37  1  0  0  0  0
 15 38  1  0  0  0  0
 15 39  1  0  0  0  0
 16 40  1  0  0  0  0
 16 41  1  0  0  0  0
 16 42  1  0  0  0  0
M  END
> <PUBCHEM_COMPOUND_CID>
90932248

> <PUBCHEM_COMPOUND_CANONICALIZED>
1

> <PUBCHEM_CACTVS_COMPLEXITY>
350

> <PUBCHEM_CACTVS_HBOND_ACCEPTOR>
0

> <PUBCHEM_CACTVS_HBOND_DONOR>
0

> <PUBCHEM_CACTVS_ROTATABLE_BOND>
1

> <PUBCHEM_CACTVS_SUBSKEYS>
AAADceB4AAAAAAAAAAAAAAAAGAAAAYMGAAAwYAAAAAAYAGAAAAAAGAAAAAAADwCAAAACAAAAAAAAAAAAAAAAAAAAAAAAAAAAAAAAAAIAAAAAAAAAAAAAAAEAgMAPgAAAAAAAAACAAAQAACAAAQAACAAAAA==

> <PUBCHEM_IUPAC_OPENEYE_NAME>
4-tert-butyl-3-methyl-tetracyclo[6.2.1.02,4.02,7]undecane

> <PUBCHEM_IUPAC_CAS_NAME>
4-tert-butyl-3-methyltetracyclo[6.2.1.02,4.02,7]undecane

> <PUBCHEM_IUPAC_NAME_MARKUP>
4-<I>tert</I>-butyl-3-methyltetracyclo[6.2.1.0<SUP>2,4</SUP>.0<SUP>2,7</SUP>]undecane

> <PUBCHEM_IUPAC_NAME>
4-tert-butyl-3-methyltetracyclo[6.2.1.02,4.02,7]undecane

> <PUBCHEM_IUPAC_SYSTEMATIC_NAME>
4-tert-butyl-3-methyl-tetracyclo[6.2.1.02,4.02,7]undecane

> <PUBCHEM_IUPAC_TRADITIONAL_NAME>
4-tert-butyl-3-methyl-tetracyclo[6.2.1.02,4.02,7]undecane

> <PUBCHEM_IUPAC_INCHI>
InChI=1S/C16H26/c1-10-15(14(2,3)4)8-7-13-11-5-6-12(9-11)16(10,13)15/h10-13H,5-9H2,1-4H3

> <PUBCHEM_IUPAC_INCHIKEY>
BMCLRQSAKIULNP-UHFFFAOYSA-N

> <PUBCHEM_XLOGP3_AA>
5.6

> <PUBCHEM_EXACT_MASS>
218.203

> <PUBCHEM_MOLECULAR_FORMULA>
C16H26

> <PUBCHEM_MOLECULAR_WEIGHT>
218.384

> <PUBCHEM_OPENEYE_CAN_SMILES>
CC1C2(C13C4CCC(C4)C3CC2)C(C)(C)C

> <PUBCHEM_OPENEYE_ISO_SMILES>
CC1C2(C13C4CCC(C4)C3CC2)C(C)(C)C

> <PUBCHEM_CACTVS_TPSA>
0

> <PUBCHEM_MONOISOTOPIC_WEIGHT>
218.203

> <PUBCHEM_TOTAL_CHARGE>
0

> <PUBCHEM_HEAVY_ATOM_COUNT>
16

> <PUBCHEM_ATOM_DEF_STEREO_COUNT>
0

> <PUBCHEM_ATOM_UDEF_STEREO_COUNT>
6

> <PUBCHEM_BOND_DEF_STEREO_COUNT>
0

> <PUBCHEM_BOND_UDEF_STEREO_COUNT>
0

> <PUBCHEM_ISOTOPIC_ATOM_COUNT>
0

> <PUBCHEM_COMPONENT_COUNT>
1

> <PUBCHEM_CACTVS_TAUTO_COUNT>
-1

> <PUBCHEM_COORDINATE_TYPE>
1
5
255

> <PUBCHEM_BONDANNOTATIONS>
2  1  3
1  3  3
3  13  3
4  8  3
5  11  3
6  12  3

$$$$
