26675884
  -OEChem-06051904362D

 15 15  0     0  0  0  0  0  0999 V2000
   27.7371  -21.3221    0.0000 Cl  0  0  0  0  0  0  0  0  0  0  0  0
   29.7248  -20.0312    0.0000 S   0  0  0  0  0  0  0  0  0  0  0  0
   34.6085  -14.7405    0.0000 O   0  5  0  0  0  0  0  0  0  0  0  0
   32.3048  -14.7405    0.0000 O   0  0  0  0  0  0  0  0  0  0  0  0
   27.8613  -18.9553    0.0000 N   0  0  0  0  0  0  0  0  0  0  0  0
   32.3048  -18.7304    0.0000 N   0  0  0  0  0  0  0  0  0  0  0  0
   33.4567  -16.7355    0.0000 N   0  0  0  0  0  0  0  0  0  0  0  0
   33.4567  -15.4055    0.0000 N   0  3  0  0  0  0  0  0  0  0  0  0
   34.6085  -18.7304    0.0000 N   0  0  0  0  0  0  0  0  0  0  0  0
   30.0014  -18.7304    0.0000 C   0  0  0  0  0  0  0  0  0  0  0  0
   28.4021  -20.1704    0.0000 C   0  0  0  0  0  0  0  0  0  0  0  0
   28.8496  -18.0654    0.0000 C   0  0  0  0  0  0  0  0  0  0  0  0
   33.4567  -18.0654    0.0000 C   0  0  0  0  0  0  0  0  0  0  0  0
   31.1532  -18.0654    0.0000 C   0  0  0  0  0  0  0  0  0  0  0  0
   35.7602  -18.0654    0.0000 C   0  0  0  0  0  0  0  0  0  0  0  0
  1 11  1  0  0  0  0
  2 10  1  0  0  0  0
  2 11  1  0  0  0  0
  3  8  1  0  0  0  0
  4  8  2  0  0  0  0
  5 11  2  0  0  0  0
  5 12  1  0  0  0  0
  6 13  1  0  0  0  0
  6 14  1  0  0  0  0
  7  8  1  0  0  0  0
  7 13  2  3  0  0  0
  9 13  1  0  0  0  0
  9 15  1  0  0  0  0
 10 12  2  0  0  0  0
 10 14  1  0  0  0  0
M  CHG  2   3  -1   8   1
M  END
> <PUBCHEM_COMPOUND_ID_TYPE>
0

> <PUBCHEM_TOTAL_CHARGE>
0

> <PUBCHEM_SUBSTANCE_ID>
26675884

> <PUBCHEM_SUBSTANCE_VERSION>
10

> <PUBCHEM_EXT_DATASOURCE_NAME>
ChEBI

> <PUBCHEM_EXT_DATASOURCE_REGID>
CHEBI:39178

> <PUBCHEM_SUBSTANCE_COMMENT>
Stravs M, Schymanski E, Singer H, Department of Environmental Chemistry, Eawag

> <PUBCHEM_SUBSTANCE_SYNONYM>
1-[(2-chloro-1,3-thiazol-5-yl)methyl]-3-methyl-2-nitroguanidine
CHEBI:39178
CLO
clothianidin

> <PUBCHEM_XREF_EXT_ID>
CHEBI:39178

> <PUBCHEM_EXT_DATASOURCE_URL>
http://www.ebi.ac.uk/chebi/

> <PUBCHEM_EXT_SUBSTANCE_URL>
http://www.ebi.ac.uk/chebi/searchId.do?chebiId=CHEBI:39178

> <PUBCHEM_CID_ASSOCIATIONS>
135779804  1

> <PUBCHEM_COORDINATE_TYPE>
1
3

$$$$
