%chk=pet_pm6.chk
# opt pm6 geom=connectivity

Title Card Required

0 1
 C                 -0.02149493    0.38288449   -0.27048723
 C                  1.28374544    0.88886004   -0.20523185
 C                  1.49681766    2.24146456    0.09306867
 C                  0.40464953    3.08809332    0.32611478
 C                 -0.90059088    2.58211797    0.26085850
 C                 -1.11366308    1.22951334   -0.03744152
 H                 -0.18418025   -0.64985935   -0.49824510
 H                  2.11764020    0.24243931   -0.38316382
 H                  0.56733500    4.12083625    0.55387664
 H                 -1.73448553    3.22853807    0.43879324
 C                  2.93114789    2.79748077    0.16478176
 O                  3.12247807    4.01206424    0.43264423
 O                  4.04560530    1.93357303   -0.07301669
 C                 -2.54799329    0.67349704   -0.10915419
 O                 -3.52871571    1.43373520    0.10011128
 O                 -2.76541406   -0.70671082   -0.41354619
 H                 -3.60492692   -0.80566223   -0.86854814
 C                  5.17227398    2.39081849    0.67960824
 C                  6.37245889    1.46045632    0.42351761
 H                  4.93147690    2.38359979    1.72213626
 H                  5.42220815    3.38659238    0.37816625
 H                  7.21549069    1.80259103    0.98667053
 H                  6.12252471    0.46468243    0.72495960
 H                  6.61325596    1.46767502   -0.61901040

 1 2 1.5 6 1.5 7 1.0
 2 3 1.5 8 1.0
 3 4 1.5 11 1.0
 4 5 1.5 9 1.0
 5 6 1.5 10 1.0
 6 14 1.0
 7
 8
 9
 10
 11 12 2.0 13 1.0
 12
 13 18 1.0
 14 15 2.0 16 1.0
 15
 16 17 1.0
 17
 18 19 1.0 20 1.0 21 1.0
 19 22 1.0 23 1.0 24 1.0
 20
 21
 22
 23
 24

